Version 4.1
SHEET 1 1020 680
WIRE 208 -80 -272 -80
WIRE 560 -80 208 -80
WIRE -272 -48 -272 -80
WIRE 208 -32 208 -80
WIRE 560 16 560 -80
WIRE 512 32 480 32
WIRE 208 80 208 48
WIRE 384 80 208 80
WIRE 512 80 448 80
WIRE 208 112 208 80
WIRE -96 160 -144 160
WIRE 48 160 -16 160
WIRE 144 160 112 160
WIRE 160 160 144 160
WIRE 560 192 560 96
WIRE 560 192 544 192
WIRE 576 192 560 192
WIRE 672 192 656 192
WIRE -144 224 -144 160
WIRE 672 240 672 192
WIRE 208 288 208 208
WIRE 208 304 208 288
WIRE -272 368 -272 32
WIRE -144 368 -144 304
WIRE -144 368 -272 368
WIRE 208 368 -144 368
WIRE 384 368 208 368
WIRE 480 368 480 32
WIRE 480 368 384 368
WIRE 672 368 672 304
WIRE 672 368 480 368
WIRE 384 416 384 368
FLAG 384 416 0
SYMBOL npn 144 112 R0
SYMATTR InstName Q1
SYMBOL cap 112 144 R90
WINDOW 0 0 32 VBottom 2
WINDOW 3 32 32 VTop 2
SYMATTR InstName C1
SYMATTR Value 10µF
SYMBOL res 192 -48 R0
SYMATTR InstName R1
SYMATTR Value 1K
SYMBOL res 192 272 R0
WINDOW 3 36 68 Left 2
SYMATTR Value 1K
SYMATTR InstName R2
SYMBOL res 0 144 R90
WINDOW 0 0 56 VBottom 2
WINDOW 3 32 56 VTop 2
SYMATTR InstName R3
SYMATTR Value 10K
SYMBOL diode 384 96 R270
WINDOW 0 32 32 VTop 2
WINDOW 3 0 32 VBottom 2
SYMATTR InstName D1
SYMBOL sw 560 0 R0
SYMATTR InstName S1
SYMBOL res 672 176 R90
WINDOW 0 0 56 VBottom 2
WINDOW 3 32 56 VTop 2
SYMATTR InstName R4
SYMATTR Value 1K
SYMBOL LED 656 240 R0
SYMATTR InstName D2
SYMBOL voltage -144 208 R0
WINDOW 123 24 124 Left 2
WINDOW 39 0 0 Left 0
SYMATTR Value2 AC 10mV
SYMATTR InstName V1
SYMATTR Value SINE(0 10m 1k)
SYMBOL voltage -272 -64 R0
WINDOW 123 0 0 Left 0
WINDOW 39 0 0 Left 0
SYMATTR InstName V2
SYMATTR Value 5V
TEXT -304 440 Left 2 !.tran 0 100ms 0 1ms
TEXT 456 448 Left 2 !.model SW SW(Ron=1 Roff=1Meg Vt=2 Vh=0.5)
